

## Overview

                    │       Analyzed Image         
────────────────────┼──────────────────────────────
  Target            │  mywebapp:INSECURE           
    digest          │  f113f52ca3cb                
    platform        │ linux/amd64                  
    vulnerabilities │    3C     2H     4M    36L   
    size            │ 80 MB                        
    packages        │ 231                          


## Packages and Vulnerabilities

   2C     1H     0M     0L  expat 2.5.0-1
pkg:deb/debian/expat@2.5.0-1?os_distro=bookworm&os_name=debian&os_version=12

    ✗ CRITICAL CVE-2024-45492
      https://scout.docker.com/v/CVE-2024-45492?s=debian&n=expat&ns=debian&t=deb&osn=debian&osv=12&vr=%3C2.5.0-1%2Bdeb12u1
      Affected range : <2.5.0-1+deb12u1  
      Fixed version  : 2.5.0-1+deb12u1   
    
    ✗ CRITICAL CVE-2024-45491
      https://scout.docker.com/v/CVE-2024-45491?s=debian&n=expat&ns=debian&t=deb&osn=debian&osv=12&vr=%3C2.5.0-1%2Bdeb12u1
      Affected range : <2.5.0-1+deb12u1  
      Fixed version  : 2.5.0-1+deb12u1   
    
    ✗ HIGH CVE-2024-45490
      https://scout.docker.com/v/CVE-2024-45490?s=debian&n=expat&ns=debian&t=deb&osn=debian&osv=12&vr=%3C2.5.0-1%2Bdeb12u1
      Affected range : <2.5.0-1+deb12u1  
      Fixed version  : 2.5.0-1+deb12u1   
    

   1C     0H     1M     1L  openssl 3.0.14-1~deb12u2
pkg:deb/debian/openssl@3.0.14-1~deb12u2?os_distro=bookworm&os_name=debian&os_version=12

    ✗ CRITICAL CVE-2024-5535
      https://scout.docker.com/v/CVE-2024-5535?s=debian&n=openssl&ns=debian&t=deb&osn=debian&osv=12&vr=%3C3.0.15-1%7Edeb12u1
      Affected range : <3.0.15-1~deb12u1  
      Fixed version  : 3.0.15-1~deb12u1   
    
    ✗ MEDIUM CVE-2024-9143
      https://scout.docker.com/v/CVE-2024-9143?s=debian&n=openssl&ns=debian&t=deb&osn=debian&osv=12&vr=%3C3.0.15-1%7Edeb12u1
      Affected range : <3.0.15-1~deb12u1  
      Fixed version  : 3.0.15-1~deb12u1   
    
    ✗ LOW CVE-2010-0928
      https://scout.docker.com/v/CVE-2010-0928?s=debian&n=openssl&ns=debian&t=deb&osn=debian&osv=12&vr=%3E%3D3.0.11-1%7Edeb12u2
      Affected range : >=3.0.11-1~deb12u2  
      Fixed version  : not fixed           
    

   0C     1H     1M     1L  libheif 1.15.1-1
pkg:deb/debian/libheif@1.15.1-1?os_distro=bookworm&os_name=debian&os_version=12

    ✗ HIGH CVE-2024-41311
      https://scout.docker.com/v/CVE-2024-41311?s=debian&n=libheif&ns=debian&t=deb&osn=debian&osv=12&vr=%3C1.15.1-1%2Bdeb12u1
      Affected range : <1.15.1-1+deb12u1  
      Fixed version  : 1.15.1-1+deb12u1   
    
    ✗ MEDIUM CVE-2023-29659
      https://scout.docker.com/v/CVE-2023-29659?s=debian&n=libheif&ns=debian&t=deb&osn=debian&osv=12&vr=%3C1.15.1-1%2Bdeb12u1
      Affected range : <1.15.1-1+deb12u1  
      Fixed version  : 1.15.1-1+deb12u1   
    
    ✗ LOW CVE-2023-49462
      https://scout.docker.com/v/CVE-2023-49462?s=debian&n=libheif&ns=debian&t=deb&osn=debian&osv=12&vr=%3C1.15.1-1%2Bdeb12u1
      Affected range : <1.15.1-1+deb12u1  
      Fixed version  : 1.15.1-1+deb12u1   
    

   0C     0H     1M     0L  nghttp2 1.52.0-1+deb12u1
pkg:deb/debian/nghttp2@1.52.0-1%2Bdeb12u1?os_distro=bookworm&os_name=debian&os_version=12

    ✗ MEDIUM CVE-2024-28182
      https://scout.docker.com/v/CVE-2024-28182?s=debian&n=nghttp2&ns=debian&t=deb&osn=debian&osv=12&vr=%3C1.52.0-1%2Bdeb12u2
      Affected range : <1.52.0-1+deb12u2  
      Fixed version  : 1.52.0-1+deb12u2   
    

   0C     0H     1M     0L  curl 7.88.1-10+deb12u7
pkg:deb/debian/curl@7.88.1-10%2Bdeb12u7?os_distro=bookworm&os_name=debian&os_version=12

    ✗ MEDIUM CVE-2024-8096
      https://scout.docker.com/v/CVE-2024-8096?s=debian&n=curl&ns=debian&t=deb&osn=debian&osv=12&vr=%3C7.88.1-10%2Bdeb12u8
      Affected range : <7.88.1-10+deb12u8  
      Fixed version  : 7.88.1-10+deb12u8   
    

   0C     0H     0M    10L  tiff 4.5.0-6+deb12u1
pkg:deb/debian/tiff@4.5.0-6%2Bdeb12u1?os_distro=bookworm&os_name=debian&os_version=12

    ✗ LOW CVE-2024-6716
      https://scout.docker.com/v/CVE-2024-6716?s=debian&n=tiff&ns=debian&t=deb&osn=debian&osv=12&vr=%3E%3D4.5.0-6%2Bdeb12u1
      Affected range : >=4.5.0-6+deb12u1  
      Fixed version  : not fixed          
    
    ✗ LOW CVE-2023-6228
      https://scout.docker.com/v/CVE-2023-6228?s=debian&n=tiff&ns=debian&t=deb&osn=debian&osv=12&vr=%3E%3D4.5.0-6%2Bdeb12u1
      Affected range : >=4.5.0-6+deb12u1  
      Fixed version  : not fixed          
    
    ✗ LOW CVE-2023-3164
      https://scout.docker.com/v/CVE-2023-3164?s=debian&n=tiff&ns=debian&t=deb&osn=debian&osv=12&vr=%3E%3D4.5.0-6%2Bdeb12u1
      Affected range : >=4.5.0-6+deb12u1  
      Fixed version  : not fixed          
    
    ✗ LOW CVE-2023-1916
      https://scout.docker.com/v/CVE-2023-1916?s=debian&n=tiff&ns=debian&t=deb&osn=debian&osv=12&vr=%3E%3D4.5.0-6%2Bdeb12u1
      Affected range : >=4.5.0-6+deb12u1  
      Fixed version  : not fixed          
    
    ✗ LOW CVE-2022-1210
      https://scout.docker.com/v/CVE-2022-1210?s=debian&n=tiff&ns=debian&t=deb&osn=debian&osv=12&vr=%3E%3D4.5.0-6%2Bdeb12u1
      Affected range : >=4.5.0-6+deb12u1  
      Fixed version  : not fixed          
    
    ✗ LOW CVE-2018-10126
      https://scout.docker.com/v/CVE-2018-10126?s=debian&n=tiff&ns=debian&t=deb&osn=debian&osv=12&vr=%3E%3D4.5.0-6%2Bdeb12u1
      Affected range : >=4.5.0-6+deb12u1  
      Fixed version  : not fixed          
    
    ✗ LOW CVE-2017-9117
      https://scout.docker.com/v/CVE-2017-9117?s=debian&n=tiff&ns=debian&t=deb&osn=debian&osv=12&vr=%3E%3D4.5.0-6%2Bdeb12u1
      Affected range : >=4.5.0-6+deb12u1  
      Fixed version  : not fixed          
    
    ✗ LOW CVE-2017-5563
      https://scout.docker.com/v/CVE-2017-5563?s=debian&n=tiff&ns=debian&t=deb&osn=debian&osv=12&vr=%3E%3D4.5.0-6%2Bdeb12u1
      Affected range : >=4.5.0-6+deb12u1  
      Fixed version  : not fixed          
    
    ✗ LOW CVE-2017-17973
      https://scout.docker.com/v/CVE-2017-17973?s=debian&n=tiff&ns=debian&t=deb&osn=debian&osv=12&vr=%3E%3D4.5.0-6%2Bdeb12u1
      Affected range : >=4.5.0-6+deb12u1  
      Fixed version  : not fixed          
    
    ✗ LOW CVE-2017-16232
      https://scout.docker.com/v/CVE-2017-16232?s=debian&n=tiff&ns=debian&t=deb&osn=debian&osv=12&vr=%3E%3D4.5.0-6%2Bdeb12u1
      Affected range : >=4.5.0-6+deb12u1  
      Fixed version  : not fixed          
    

   0C     0H     0M     4L  openldap 2.5.13+dfsg-5
pkg:deb/debian/openldap@2.5.13%2Bdfsg-5?os_distro=bookworm&os_name=debian&os_version=12

    ✗ LOW CVE-2020-15719
      https://scout.docker.com/v/CVE-2020-15719?s=debian&n=openldap&ns=debian&t=deb&osn=debian&osv=12&vr=%3E%3D2.5.13%2Bdfsg-5
      Affected range : >=2.5.13+dfsg-5  
      Fixed version  : not fixed        
    
    ✗ LOW CVE-2017-17740
      https://scout.docker.com/v/CVE-2017-17740?s=debian&n=openldap&ns=debian&t=deb&osn=debian&osv=12&vr=%3E%3D2.5.13%2Bdfsg-5
      Affected range : >=2.5.13+dfsg-5  
      Fixed version  : not fixed        
    
    ✗ LOW CVE-2017-14159
      https://scout.docker.com/v/CVE-2017-14159?s=debian&n=openldap&ns=debian&t=deb&osn=debian&osv=12&vr=%3E%3D2.5.13%2Bdfsg-5
      Affected range : >=2.5.13+dfsg-5  
      Fixed version  : not fixed        
    
    ✗ LOW CVE-2015-3276
      https://scout.docker.com/v/CVE-2015-3276?s=debian&n=openldap&ns=debian&t=deb&osn=debian&osv=12&vr=%3E%3D2.5.13%2Bdfsg-5
      Affected range : >=2.5.13+dfsg-5  
      Fixed version  : not fixed        
    

   0C     0H     0M     3L  krb5 1.20.1-2+deb12u2
pkg:deb/debian/krb5@1.20.1-2%2Bdeb12u2?os_distro=bookworm&os_name=debian&os_version=12

    ✗ LOW CVE-2024-26461
      https://scout.docker.com/v/CVE-2024-26461?s=debian&n=krb5&ns=debian&t=deb&osn=debian&osv=12&vr=%3E%3D1.20.1-2%2Bdeb12u2
      Affected range : >=1.20.1-2+deb12u2  
      Fixed version  : not fixed           
    
    ✗ LOW CVE-2024-26458
      https://scout.docker.com/v/CVE-2024-26458?s=debian&n=krb5&ns=debian&t=deb&osn=debian&osv=12&vr=%3E%3D1.20.1-2%2Bdeb12u2
      Affected range : >=1.20.1-2+deb12u2  
      Fixed version  : not fixed           
    
    ✗ LOW CVE-2018-5709
      https://scout.docker.com/v/CVE-2018-5709?s=debian&n=krb5&ns=debian&t=deb&osn=debian&osv=12&vr=%3E%3D1.20.1-2%2Bdeb12u2
      Affected range : >=1.20.1-2+deb12u2  
      Fixed version  : not fixed           
    

   0C     0H     0M     2L  perl 5.36.0-7+deb12u1
pkg:deb/debian/perl@5.36.0-7%2Bdeb12u1?os_distro=bookworm&os_name=debian&os_version=12

    ✗ LOW CVE-2023-31486
      https://scout.docker.com/v/CVE-2023-31486?s=debian&n=perl&ns=debian&t=deb&osn=debian&osv=12&vr=%3E%3D5.36.0-7%2Bdeb12u1
      Affected range : >=5.36.0-7+deb12u1  
      Fixed version  : not fixed           
    
    ✗ LOW CVE-2011-4116
      https://scout.docker.com/v/CVE-2011-4116?s=debian&n=perl&ns=debian&t=deb&osn=debian&osv=12&vr=%3E%3D5.36.0-7%2Bdeb12u1
      Affected range : >=5.36.0-7+deb12u1  
      Fixed version  : not fixed           
    

   0C     0H     0M     2L  nginx 1.27.1-1~bookworm
pkg:deb/debian/nginx@1.27.1-1~bookworm?os_distro=bookworm&os_name=debian&os_version=12

    ✗ LOW CVE-2023-44487  CISA KEV 
      https://scout.docker.com/v/CVE-2023-44487?s=debian&n=nginx&ns=debian&t=deb&osn=debian&osv=12&vr=%3E%3D1.22.1-9
      Affected range : >=1.22.1-9  
      Fixed version  : not fixed   
    
    ✗ LOW CVE-2009-4487
      https://scout.docker.com/v/CVE-2009-4487?s=debian&n=nginx&ns=debian&t=deb&osn=debian&osv=12&vr=%3E%3D1.22.1-9
      Affected range : >=1.22.1-9  
      Fixed version  : not fixed   
    

   0C     0H     0M     2L  gcc-12 12.2.0-14
pkg:deb/debian/gcc-12@12.2.0-14?os_distro=bookworm&os_name=debian&os_version=12

    ✗ LOW CVE-2023-4039
      https://scout.docker.com/v/CVE-2023-4039?s=debian&n=gcc-12&ns=debian&t=deb&osn=debian&osv=12&vr=%3E%3D12.2.0-14
      Affected range : >=12.2.0-14  
      Fixed version  : not fixed    
    
    ✗ LOW CVE-2022-27943
      https://scout.docker.com/v/CVE-2022-27943?s=debian&n=gcc-12&ns=debian&t=deb&osn=debian&osv=12&vr=%3E%3D12.2.0-14
      Affected range : >=12.2.0-14  
      Fixed version  : not fixed    
    

   0C     0H     0M     1L  libgcrypt20 1.10.1-3
pkg:deb/debian/libgcrypt20@1.10.1-3?os_distro=bookworm&os_name=debian&os_version=12

    ✗ LOW CVE-2018-6829
      https://scout.docker.com/v/CVE-2018-6829?s=debian&n=libgcrypt20&ns=debian&t=deb&osn=debian&osv=12&vr=%3E%3D1.10.1-3
      Affected range : >=1.10.1-3  
      Fixed version  : not fixed   
    

   0C     0H     0M     1L  gnutls28 3.7.9-2+deb12u3
pkg:deb/debian/gnutls28@3.7.9-2%2Bdeb12u3?os_distro=bookworm&os_name=debian&os_version=12

    ✗ LOW CVE-2011-3389
      https://scout.docker.com/v/CVE-2011-3389?s=debian&n=gnutls28&ns=debian&t=deb&osn=debian&osv=12&vr=%3E%3D3.7.9-2%2Bdeb12u3
      Affected range : >=3.7.9-2+deb12u3  
      Fixed version  : not fixed          
    

   0C     0H     0M     1L  apt 2.6.1
pkg:deb/debian/apt@2.6.1?os_distro=bookworm&os_name=debian&os_version=12

    ✗ LOW CVE-2011-3374
      https://scout.docker.com/v/CVE-2011-3374?s=debian&n=apt&ns=debian&t=deb&osn=debian&osv=12&vr=%3E%3D2.6.1
      Affected range : >=2.6.1    
      Fixed version  : not fixed  
    

   0C     0H     0M     1L  libpng1.6 1.6.39-2
pkg:deb/debian/libpng1.6@1.6.39-2?os_distro=bookworm&os_name=debian&os_version=12

    ✗ LOW CVE-2021-4214
      https://scout.docker.com/v/CVE-2021-4214?s=debian&n=libpng1.6&ns=debian&t=deb&osn=debian&osv=12&vr=%3E%3D1.6.39-2
      Affected range : >=1.6.39-2  
      Fixed version  : not fixed   
    

   0C     0H     0M     1L  gnupg2 2.2.40-1.1
pkg:deb/debian/gnupg2@2.2.40-1.1?os_distro=bookworm&os_name=debian&os_version=12

    ✗ LOW CVE-2022-3219
      https://scout.docker.com/v/CVE-2022-3219?s=debian&n=gnupg2&ns=debian&t=deb&osn=debian&osv=12&vr=%3E%3D2.2.40-1.1
      Affected range : >=2.2.40-1.1  
      Fixed version  : not fixed     
    

   0C     0H     0M     1L  coreutils 9.1-1
pkg:deb/debian/coreutils@9.1-1?os_distro=bookworm&os_name=debian&os_version=12

    ✗ LOW CVE-2017-18018
      https://scout.docker.com/v/CVE-2017-18018?s=debian&n=coreutils&ns=debian&t=deb&osn=debian&osv=12&vr=%3E%3D9.1-1
      Affected range : >=9.1-1    
      Fixed version  : not fixed  
    

   0C     0H     0M     1L  tar 1.34+dfsg-1.2+deb12u1
pkg:deb/debian/tar@1.34%2Bdfsg-1.2%2Bdeb12u1?os_distro=bookworm&os_name=debian&os_version=12

    ✗ LOW CVE-2005-2541
      https://scout.docker.com/v/CVE-2005-2541?s=debian&n=tar&ns=debian&t=deb&osn=debian&osv=12&vr=%3E%3D1.34%2Bdfsg-1.2%2Bdeb12u1
      Affected range : >=1.34+dfsg-1.2+deb12u1  
      Fixed version  : not fixed                
    

   0C     0H     0M     1L  libxslt 1.1.35-1
pkg:deb/debian/libxslt@1.1.35-1?os_distro=bookworm&os_name=debian&os_version=12

    ✗ LOW CVE-2015-9019
      https://scout.docker.com/v/CVE-2015-9019?s=debian&n=libxslt&ns=debian&t=deb&osn=debian&osv=12&vr=%3E%3D1.1.35-1
      Affected range : >=1.1.35-1  
      Fixed version  : not fixed   
    

   0C     0H     0M     1L  jbigkit 2.1-6.1
pkg:deb/debian/jbigkit@2.1-6.1?os_distro=bookworm&os_name=debian&os_version=12

    ✗ LOW CVE-2017-9937
      https://scout.docker.com/v/CVE-2017-9937?s=debian&n=jbigkit&ns=debian&t=deb&osn=debian&osv=12&vr=%3E%3D2.1-6.1
      Affected range : >=2.1-6.1  
      Fixed version  : not fixed  
    

   0C     0H     0M     1L  libxml2 2.9.14+dfsg-1.3~deb12u1
pkg:deb/debian/libxml2@2.9.14%2Bdfsg-1.3~deb12u1?os_distro=bookworm&os_name=debian&os_version=12

    ✗ LOW CVE-2024-34459
      https://scout.docker.com/v/CVE-2024-34459?s=debian&n=libxml2&ns=debian&t=deb&osn=debian&osv=12&vr=%3E%3D2.9.14%2Bdfsg-1.3%7Edeb12u1
      Affected range : >=2.9.14+dfsg-1.3~deb12u1  
      Fixed version  : not fixed                  
    

   0C     0H     0M     1L  shadow 1:4.13+dfsg1-1
pkg:deb/debian/shadow@1:4.13%2Bdfsg1-1?os_distro=bookworm&os_name=debian&os_version=12

    ✗ LOW CVE-2007-5686
      https://scout.docker.com/v/CVE-2007-5686?s=debian&n=shadow&ns=debian&t=deb&osn=debian&osv=12&vr=%3E%3D1%3A4.13%2Bdfsg1-1
      Affected range : >=1:4.13+dfsg1-1  
      Fixed version  : not fixed         
    


45 vulnerabilities found in 22 packages
  CRITICAL  3   
  HIGH      2   
  MEDIUM    4   
  LOW       36  

